Circuit: * C:\Users\vtolenti89\Documents\05_Electronics\02-Projects\night-light-sensor\02-Simulation_Calculation\Draft1.asc

.OP point found by inspection.

Date: Fri Jul 17 19:09:12 2020
Total elapsed time: 0.044 seconds.

tnom = 27
temp = 27
method = trap
totiter = 2015
traniter = 0
tranpoints = 0
accept = 0
rejected = 0
matrix size = 2
fillins = 0
solver = Normal
Matrix Compiler1: 54 bytes object code size  0.0/0.0/[0.0]
Matrix Compiler2: 116 bytes object code size  0.0/0.0/[0.0]

