Circuit: * C:\Users\vtolenti89\Documents\05_Electronics\02-Projects\night-light-sensor\02-Simulation_Calculation\LDR_Simulation.asc


Date: Sun Mar 29 22:05:18 2020
Total elapsed time: 0.665 seconds.

tnom = 27
temp = 27
method = trap
totiter = 10074
traniter = 0
tranpoints = 0
accept = 0
rejected = 0
matrix size = 28
fillins = 16
solver = Normal
Matrix Compiler1: 2.96 KB object code size  0.9/0.5/[0.4]
Matrix Compiler2: 2.77 KB object code size  0.5/0.5/[0.3]

