Circuit: * C:\Users\vtolenti89\Documents\05_Electronics\02-Projects\night-light-sensor\02-Simulation_Calculation\Night_Lightt.asc

.OP point found by inspection.

Date: Mon Jul 13 22:12:24 2020
Total elapsed time: 0.616 seconds.

tnom = 27
temp = 27
method = modified trap
totiter = 37688
traniter = 37688
tranpoints = 9696
accept = 7055
rejected = 2641
matrix size = 13
fillins = 4
solver = Normal
Matrix Compiler1: 1.04 KB object code size  0.3/0.2/[0.1]
Matrix Compiler2: 1.15 KB object code size  0.2/0.2/[0.1]

