Circuit: * C:\Users\vtolenti89\Documents\05_Electronics\02-Projects\night-light-sensor\02-Simulation_Calculation\Solar_Charger.asc

Direct Newton iteration for .op point succeeded.

Date: Fri Jul 17 19:06:02 2020
Total elapsed time: 0.534 seconds.

tnom = 27
temp = 27
method = modified trap
totiter = 25402
traniter = 25393
tranpoints = 6478
accept = 5090
rejected = 1388
matrix size = 17
fillins = 16
solver = Normal
Matrix Compiler1: 1.21 KB object code size  0.4/0.2/[0.1]
Matrix Compiler2: 1.51 KB object code size  0.2/0.2/[0.2]

