Circuit: * C:\Users\vtolenti89\Documents\05_Electronics\02-Projects\night-light-sensor\02-Simulation_Calculation\System.asc

Direct Newton iteration for .op point succeeded.
.step rf=10000
Heightened Def Con from 1.66478 to 1.66478
