Circuit: * C:\Users\vtolenti89\Documents\05_Electronics\02-Projects\night-light-sensor\02-Simulation_Calculation\System_V2.asc

WARNING: Less than two connections to node 14V.  This node is used by B1.
Direct Newton iteration for .op point succeeded.
.step ldr=1000 r_s=1000
.step ldr=150000 r_s=1000
.step ldr=1000 r_s=10000
.step ldr=150000 r_s=10000
.step ldr=1000 r_s=100000
.step ldr=150000 r_s=100000


Measurement: c1_rms
  step	RMS(i(c1))	FROM	TO
     1	0.126866	0	1.3
     2	0.126848	0	1.3
     3	0.126866	0	1.3
     4	0.126848	0	1.3
     5	0.126866	0	1.3
     6	0.126848	0	1.3

Measurement: i_in
  step	RMS(i(c1))	FROM	TO
     1	0.000361697	0.39	1.3
     2	0.000567563	0.39	1.3
     3	0.000361697	0.39	1.3
     4	0.000567563	0.39	1.3
     5	0.000361697	0.39	1.3
     6	0.000567563	0.39	1.3

Measurement: out
  step	RMS(v(y))	FROM	TO
     1	0.191149	1	1.3
     2	4.33473	1	1.3
     3	0.191149	1	1.3
     4	4.33473	1	1.3
     5	0.191149	1	1.3
     6	4.33473	1	1.3


Date: Wed Jul 22 12:59:56 2020
Total elapsed time: 3.649 seconds.

tnom = 27
temp = 27
method = modified trap
totiter = 30389
traniter = 30359
tranpoints = 7759
accept = 6072
rejected = 1687
matrix size = 41
fillins = 50
solver = Normal
Matrix Compiler1: 4.98 KB object code size  1.5/0.8/[0.6]
Matrix Compiler2: off  [0.6]/0.9/0.6

